T44/data_conversion/HR/HR_Tx_02_2020_new_NW_Croatia_WP4/Location2.raw
0,   100.00, 33, 0, 1, 50.00     / PSS(R)E-33.9    FRI, MAR 05 2021  14:16
CREATED BY NETVISION RAW CONVERTER FROM FILES: NDC_2019-11-1
, BEGIN BUS DATA
     1,'BUS1        ', 400.0000,3,   8,   1,   1,1.02600,   0.0000,1.10000,0.90000,1.10000,0.90000
     2,'BUS2        ', 400.0000,2,   8,   1,   1,1.04000,   8.5684,1.10000,0.90000,1.10000,0.90000
     3,'BUS3        ', 400.0000,2,   8,   1,   1,1.04300,   3.2434,1.10000,0.90000,1.10000,0.90000
     4,'BUS4        ', 400.0000,2,   8,   1,   1,1.03931,  15.6762,1.10000,0.90000,1.10000,0.90000
     5,'BUS5        ', 220.0000,2,   8,   1,   1,1.04000,  14.9120,1.10000,0.90000,1.10000,0.90000
     6,'BUS6        ', 220.0000,1,   8,   1,   1,1.09702,   6.8109,1.10000,0.90000,1.10000,0.90000
     7,'BUS7        ', 220.0000,2,   8,   1,   1,1.10000,   6.2055,1.10000,0.90000,1.10000,0.90000
     8,'BUS8        ', 220.0000,2,   8,   1,   1,1.05401,  15.9687,1.10000,0.90000,1.10000,0.90000
     9,'BUS9        ', 220.0000,1,   8,   1,   1,1.08035,   3.6614,1.10000,0.90000,1.10000,0.90000
    10,'BUS10       ', 110.0000,1,   8,   1,   1,1.05327,   8.3535,1.10000,0.90000,1.10000,0.90000
    11,'BUS11       ', 110.0000,1,   8,   1,   1,1.06903,   5.9850,1.10000,0.90000,1.10000,0.90000
    12,'BUS12       ', 110.0000,1,   8,   1,   1,1.06643,  12.4132,1.10000,0.90000,1.10000,0.90000
    13,'BUS13       ', 110.0000,2,   8,   1,   1,1.04647,   7.5817,1.10000,0.90000,1.10000,0.90000
    14,'BUS14       ', 110.0000,1,   8,   1,   1,1.07390,   9.2486,1.10000,0.90000,1.10000,0.90000
    15,'BUS15       ', 110.0000,1,   8,   1,   1,1.06375,   5.7560,1.10000,0.90000,1.10000,0.90000
    16,'BUS16       ', 110.0000,1,   8,   1,   1,1.07727,   4.4848,1.10000,0.90000,1.10000,0.90000
    17,'BUS17       ', 110.0000,1,   8,   1,   1,1.04406,   6.5702,1.10000,0.90000,1.10000,0.90000
    18,'BUS18       ', 110.0000,1,   8,   1,   1,1.06185,   9.5797,1.10000,0.90000,1.10000,0.90000
    19,'BUS19       ', 110.0000,1,   8,   1,   1,1.07544,   8.4802,1.10000,0.90000,1.10000,0.90000
    20,'BUS20       ', 110.0000,2,   8,   1,   1,1.06720,  13.2551,1.10000,0.90000,1.10000,0.90000
    21,'BUS21       ', 110.0000,1,   8,   1,   1,1.07606,  10.9918,1.10000,0.90000,1.10000,0.90000
    22,'BUS22       ', 110.0000,2,   8,   1,   1,1.07057,   8.8793,1.10000,0.90000,1.10000,0.90000
    23,'BUS23       ', 110.0000,1,   8,   1,   1,1.07806,   7.1324,1.10000,0.90000,1.10000,0.90000
    24,'BUS24       ', 110.0000,1,   8,   1,   1,1.06659,  13.9675,1.10000,0.90000,1.10000,0.90000
    25,'BUS25       ', 110.0000,2,   8,   1,   1,1.07618,  11.1983,1.10000,0.90000,1.10000,0.90000
    26,'BUS26       ', 110.0000,2,   8,   1,   1,1.08464,  11.7231,1.10000,0.90000,1.10000,0.90000
    27,'BUS27       ', 110.0000,2,   8,   1,   1,1.07036,  10.6590,1.10000,0.90000,1.10000,0.90000
    28,'BUS28       ', 110.0000,1,   8,   1,   1,1.04517,   6.9061,1.10000,0.90000,1.10000,0.90000
    29,'BUS29       ', 110.0000,1,   8,   1,   1,1.04742,   7.4291,1.10000,0.90000,1.10000,0.90000
0 / END OF BUS DATA, BEGIN LOAD DATA
     4,'99',1,   8,   1,  -216.617,     0.000,     0.000,     0.000,     0.000,     0.000,   1,1,0
     5,'1 ',1,   8,   1,     2.470,    -3.402,     0.000,     0.000,     0.000,     0.000,   1,1,0
     6,'99',1,   8,   1,   103.854,    12.948,     0.000,     0.000,     0.000,     0.000,   1,1,0
     9,'99',1,   8,   1,     3.924,    45.550,     0.000,     0.000,     0.000,     0.000,   1,1,0
    10,'1 ',1,   8,   1,    11.273,    -1.880,     0.000,     0.000,     0.000,     0.000,   1,1,0
    10,'2 ',1,   8,   5,     0.000,     0.000,     0.000,     0.000,     0.000,     0.000,   1,1,0
    11,'1 ',1,   8,   5,     0.000,     0.000,     0.000,     0.000,     0.000,     0.000,   1,1,0
    11,'2 ',1,   8,   1,     7.652,    -2.369,     0.000,     0.000,     0.000,     0.000,   1,1,0
    12,'1 ',1,   8,   1,     5.406,    -4.943,     0.000,     0.000,     0.000,     0.000,   1,1,0
    12,'2 ',1,   8,   5,     0.000,     0.000,     0.000,     0.000,     0.000,     0.000,   1,1,0
    12,'99',1,   8,   1,    -0.545,     7.902,     0.000,     0.000,     0.000,     0.000,   1,1,0
    13,'1 ',1,   8,   1,     1.573,    -2.145,     0.000,     0.000,     0.000,     0.000,   1,1,0
    13,'2 ',1,   8,   1,     8.547,     0.580,     0.000,     0.000,     0.000,     0.000,   1,1,0
    14,'1 ',1,   8,   1,     0.687,    -0.335,     0.000,     0.000,     0.000,     0.000,   1,1,0
    15,'1 ',1,   8,   1,     3.850,    -3.919,     0.000,     0.000,     0.000,     0.000,   1,1,0
    15,'2 ',1,   8,   1,    10.684,    -7.068,     0.000,     0.000,     0.000,     0.000,   1,1,0
    16,'1 ',1,   8,   1,     6.963,    -5.925,     0.000,     0.000,     0.000,     0.000,   1,1,0
    16,'2 ',1,   8,   5,     0.000,     0.000,     0.000,     0.000,     0.000,     0.000,   1,1,0
    17,'99',1,   8,   1,    67.365,    -3.702,     0.000,     0.000,     0.000,     0.000,   1,1,0
    18,'1 ',1,   8,   1,     3.144,    -2.803,     0.000,     0.000,     0.000,     0.000,   1,1,0
    18,'2 ',1,   8,   1,     5.044,    -4.101,     0.000,     0.000,     0.000,     0.000,   1,1,0
    18,'99',1,   8,   1,    26.061,     9.493,     0.000,     0.000,     0.000,     0.000,   1,1,0
    19,'1 ',1,   8,   1,     0.015,     0.028,     0.000,     0.000,     0.000,     0.000,   1,1,0
    19,'2 ',1,   8,   1,     3.431,    -3.171,     0.000,     0.000,     0.000,     0.000,   1,1,0
    20,'1 ',1,   8,   1,    10.394,     0.622,     0.000,     0.000,     0.000,     0.000,   1,1,0
    21,'1 ',1,   8,   5,     0.000,     0.000,     0.000,     0.000,     0.000,     0.000,   1,1,0
    21,'2 ',1,   8,   1,     6.609,     0.871,     0.000,     0.000,     0.000,     0.000,   1,1,0
    22,'1 ',1,   8,   1,     1.658,    -0.046,     0.000,     0.000,     0.000,     0.000,   1,1,0
    23,'1 ',1,   8,   1,     5.309,    -1.563,     0.000,     0.000,     0.000,     0.000,   1,1,0
    23,'2 ',1,   8,   5,     0.000,     0.000,     0.000,     0.000,     0.000,     0.000,   1,1,0
    26,'1 ',1,   8,   1,     2.912,    -0.511,     0.000,     0.000,     0.000,     0.000,   1,1,0
    27,'1 ',1,   8,   1,    10.242,     2.926,     0.000,     0.000,     0.000,     0.000,   1,1,0
    27,'2 ',1,   8,   1,    10.088,     2.336,     0.000,     0.000,     0.000,     0.000,   1,1,0
    28,'1 ',1,   8,   1,     2.421,    -1.173,     0.000,     0.000,     0.000,     0.000,   1,1,0
    28,'2 ',1,   8,   1,     2.322,    -1.164,     0.000,     0.000,     0.000,     0.000,   1,1,0
    29,'1 ',0,   8,   5,     0.000,     0.000,     0.000,     0.000,     0.000,     0.000,   1,1,0
    29,'2 ',1,   8,   1,     3.242,     0.618,     0.000,     0.000,     0.000,     0.000,   1,1,0
    29,'99',1,   8,   1,     8.163,    -8.320,     0.000,     0.000,     0.000,     0.000,   1,1,0
0 / END OF LOAD DATA, BEGIN FIXED SHUNT DATA
0 / END OF FIXED SHUNT DATA, BEGIN GENERATOR DATA
     1,'1 ',  -756.829,   -81.582,  9999.000, -9999.000,1.02600,     0,   100.000, 0.00000E+0, 1.00000E+0, 0.00000E+0, 0.00000E+0,1.00000,1,  100.0,  9999.000, -9999.000,   1,1.0000
     2,'1 ',   150.000,   -81.912,  9999.000, -9999.000,1.04000,     0,   100.000, 0.00000E+0, 1.00000E+0, 0.00000E+0, 0.00000E+0,1.00000,1,  100.0,  9999.000, -9999.000,   1,1.0000
     3,'1 ',   143.000,   120.019,  9999.000, -9999.000,1.04300,     0,   100.000, 0.00000E+0, 1.00000E+0, 0.00000E+0, 0.00000E+0,1.00000,1,  100.0,  9999.000, -9999.000,   1,1.0000
     4,'1 ',   103.286,   -38.956,    80.000,   -80.000,1.03931,     0,   155.000, 0.00000E+0, 1.96000E-1, 0.00000E+0, 1.00000E-2,1.00000,1,  100.0,   138.000,  -130.000,   1,1.0000
     4,'2 ',   105.462,   -39.777,    80.000,   -80.000,1.03931,     0,   155.000, 0.00000E+0, 1.96000E-1, 0.00000E+0, 1.00000E-2,1.00000,1,  100.0,   138.000,  -130.000,   1,1.0000
     5,'1 ',    45.000,  -191.293,  9999.000, -9999.000,1.04000,     0,   100.000, 0.00000E+0, 1.00000E+0, 0.00000E+0, 0.00000E+0,1.00000,1,  100.0,  9999.000, -9999.000,   1,1.0000
     7,'1 ',    50.000,   178.016,  9999.000, -9999.000,1.10000,     0,   100.000, 0.00000E+0, 1.00000E+0, 0.00000E+0, 0.00000E+0,1.00000,1,  100.0,  9999.000, -9999.000,   1,1.0000
     8,'1 ',    67.907,    35.000,    35.000,   -30.880,1.10100,     0,    80.000, 0.00000E+0, 1.84000E-1, 0.00000E+0, 1.17100E-1,1.00000,1,  100.0,    72.000,    35.000,   1,1.0000
    13,'1 ',    16.712,   -15.000,    29.750,   -15.000,1.04355,     0,    35.000, 0.00000E+0, 2.00000E-1, 0.00000E+0, 1.00000E-1,1.00000,1,  100.0,    31.500,     0.010,   1,1.0000
    13,'2 ',    16.617,   -15.000,    29.750,   -15.000,1.04355,     0,    35.000, 0.00000E+0, 2.00000E-1, 0.00000E+0, 1.00000E-1,1.00000,1,  100.0,    31.500,     0.010,   1,1.0000
    13,'3 ',     0.000,     0.000,    29.750,   -15.000,1.04355,     0,    35.000, 0.00000E+0, 2.00000E-1, 0.00000E+0, 1.00000E-1,1.00000,0,  100.0,    31.500,     0.010,   1,1.0000
    20,'1 ',     1.218,    -0.037,    20.000,   -20.000,1.06720,     0,    11.120, 0.00000E+0, 2.00000E-1, 0.00000E+0, 1.00000E-2,1.00000,1,  100.0,    80.000,     0.010,   1,1.0000
    22,'1 ',     2.989,    -1.870,     1.870,    -1.870,1.06757,     0,     6.000, 0.00000E+0, 2.00000E-1, 0.00000E+0, 1.00000E-2,1.00000,1,  100.0,     6.000,     0.010,   1,1.0000
    25,'1 ',    40.905,    -3.532,    13.110,   -13.110,1.07618,     0,    45.000, 0.00000E+0, 1.60000E-1, 0.00000E+0, 1.00000E-2,1.00000,1,  100.0,    42.000,     0.010,   1,1.0000
    26,'1 ',    69.650,    31.425,    35.000,   -45.000,1.08464,     0,    80.000, 0.00000E+0, 1.84000E-1, 0.00000E+0, 1.08800E-1,1.00000,1,  100.0,    72.000,    35.000,   1,1.0000
    26,'2 ',    69.520,    31.367,    35.000,   -45.000,1.08464,     0,    80.000, 0.00000E+0, 1.84000E-1, 0.00000E+0, 1.09600E-1,1.00000,1,  100.0,    72.000,    35.000,   1,1.0000
    27,'1 ',    18.315,    -0.935,    17.250,    -7.800,1.07036,     0,    25.000, 0.00000E+0, 2.00000E-1, 0.00000E+0, 1.01000E-1,1.00000,1,  100.0,    24.000,     0.010,   1,1.0000
0 / END OF GENERATOR DATA, BEGIN BRANCH DATA
     1,     3,'1 ', 1.14375E-3, 1.18950E-2,   0.33770, 1330.00,    0.00,    0.00,  0.00000,  0.00000,  0.00000,  0.00000,1,2,  61.00,   1,1.0000
     2,     3,'1 ', 2.39125E-3, 2.63025E-2,   0.71800, 1330.00,    0.00,    0.00,  0.00000,  0.00000,  0.00000,  0.00000,1,2, 127.53,   1,1.0000
     2,     4,'1 ', 3.67188E-3, 3.81762E-2,   1.00701, 1330.00,    0.00,    0.00,  0.00000,  0.00000,  0.00000,  0.00000,1,2, 178.80,   1,1.0000
     5,     7,'1 ', 1.46033E-2, 7.78843E-2,   0.20069,  366.00,    0.00,    0.00,  0.00000,  0.00000,  0.00000,  0.00000,1,2, 117.80,   1,1.0000
     5,     8,'1 ', 2.56198E-3, 1.37603E-2,   0.02014,  310.00,    0.00,    0.00,  0.00000,  0.00000,  0.00000,  0.00000,1,1,  15.50,   1,1.0000
     6,     8,'1 ', 9.13223E-3, 4.89463E-2,   0.07139,  310.00,    0.00,    0.00,  0.00000,  0.00000,  0.00000,  0.00000,0,1,  55.20,   1,1.0000
     7,     9,'1 ', 4.36364E-3, 2.23636E-2,   0.03552,  311.00,    0.00,    0.00,  0.00000,  0.00000,  0.00000,  0.00000,1,2,  26.40,   1,1.0000
    10,    13,'1 ', 8.51240E-3, 2.70248E-2,   0.00262,  123.00,    0.00,    0.00,  0.00000,  0.00000,  0.00000,  0.00000,1,2,   7.80,   1,1.0000
    10,    15,'1 ', 1.94223E-2, 4.51083E-2,   0.03175,   70.00,    0.00,    0.00,  0.00000,  0.00000,  0.00000,  0.00000,0,2,  15.08,   1,1.0000
    10,    25,'1 ', 2.54545E-2, 8.38843E-2,   0.00848,  123.00,    0.00,    0.00,  0.00000,  0.00000,  0.00000,  0.00000,1,2,  25.00,   1,1.0000
    11,    15,'1 ', 1.12397E-2, 3.87603E-2,   0.00867,  123.00,    0.00,    0.00,  0.00000,  0.00000,  0.00000,  0.00000,1,2,  11.45,   1,1.0000
    11,    23,'1 ', 3.59496E-2, 1.05209E-1,   0.10799,  100.00,    0.00,    0.00,  0.00000,  0.00000,  0.00000,  0.00000,1,2,  36.60,   1,1.0000
    12,    20,'1 ', 2.11570E-2, 7.21488E-2,   0.00701,  123.00,    0.00,    0.00,  0.00000,  0.00000,  0.00000,  0.00000,1,2,  21.30,   1,1.0000
    12,    27,'1 ', 5.44628E-2, 1.86364E-1,   0.01877,  123.00,    0.00,    0.00,  0.00000,  0.00000,  0.00000,  0.00000,1,1,  55.37,   1,1.0000
    13,    17,'1 ', 1.40496E-2, 4.70248E-2,   0.00467,  123.00,    0.00,    0.00,  0.00000,  0.00000,  0.00000,  0.00000,1,2,  13.78,   1,1.0000
    13,    28,'1 ', 1.21488E-2, 4.08347E-2,   0.00407,  123.00,    0.00,    0.00,  0.00000,  0.00000,  0.00000,  0.00000,1,2,  11.97,   1,1.0000
    13,    29,'1 ', 1.34711E-2, 4.38017E-2,   0.00420,   82.00,    0.00,    0.00,  0.00000,  0.00000,  0.00000,  0.00000,1,2,  12.40,   1,1.0000
    13,    29,'2 ', 1.19835E-2, 4.05785E-2,   0.00413,  135.00,    0.00,    0.00,  0.00000,  0.00000,  0.00000,  0.00000,1,2,  12.20,   1,1.0000
    14,    19,'1 ', 1.99198E-2, 6.85124E-2,   0.00687,  100.00,    0.00,    0.00,  0.00000,  0.00000,  0.00000,  0.00000,1,2,  20.10,   1,1.0000
    14,    27,'1 ', 3.47107E-2, 1.19339E-1,   0.01196,  123.00,    0.00,    0.00,  0.00000,  0.00000,  0.00000,  0.00000,1,2,  35.30,   1,1.0000
    15,    16,'1 ', 1.03226E-1, 2.08100E-1,   0.08041,   70.00,    0.00,    0.00,  0.00000,  0.00000,  0.00000,  0.00000,1,2,  65.72,   1,1.0000
    15,    17,'1 ', 3.01653E-2, 6.01653E-2,   0.03386,  100.00,    0.00,    0.00,  0.00000,  0.00000,  0.00000,  0.00000,1,1,  28.11,   1,1.0000
    17,    28,'1 ', 7.60331E-3, 2.45454E-2,   0.00314,  123.00,    0.00,    0.00,  0.00000,  0.00000,  0.00000,  0.00000,1,1,   7.21,   1,1.0000
    18,    20,'1 ', 4.47273E-2, 1.52818E-1,   0.01473,  123.00,    0.00,    0.00,  0.00000,  0.00000,  0.00000,  0.00000,1,2,  45.10,   1,1.0000
    18,    22,'1 ', 2.99967E-2, 1.01650E-1,   0.00971,  100.00,    0.00,    0.00,  0.00000,  0.00000,  0.00000,  0.00000,1,1,  31.90,   1,1.0000
    19,    22,'1 ', 1.53719E-2, 5.25620E-2,   0.00508,  114.00,    0.00,    0.00,  0.00000,  0.00000,  0.00000,  0.00000,1,2,  15.50,   1,1.0000
    19,    23,'1 ', 2.69232E-2, 8.59798E-2,   0.10829,  100.00,    0.00,    0.00,  0.00000,  0.00000,  0.00000,  0.00000,1,1,  31.29,   1,1.0000
    20,    24,'1 ', 2.31405E-3, 1.81818E-2,   0.00292,  311.00,    0.00,    0.00,  0.00000,  0.00000,  0.00000,  0.00000,1,1,   6.90,   1,1.0000
    21,    26,'1 ', 5.31421E-2, 1.20579E-1,   0.01126,   90.00,    0.00,    0.00,  0.00000,  0.00000,  0.00000,  0.00000,1,1,  34.60,   1,1.0000
    21,    27,'1 ', 5.33058E-2, 1.20496E-1,   0.01123,   90.00,    0.00,    0.00,  0.00000,  0.00000,  0.00000,  0.00000,1,2,  34.50,   1,1.0000
    25,    26,'1 ', 1.28099E-2, 4.22314E-2,   0.00422,  123.00,    0.00,    0.00,  0.00000,  0.00000,  0.00000,  0.00000,1,1,  12.50,   1,1.0000
0 / END OF BRANCH DATA, BEGIN TRANSFORMER DATA
     1,     9,     0,'1 ',2,1,1, 6.16000E-4, 0.00000E+0,1,'            ',1,   1,1.0000,   0,1.0000,   0,1.0000,   0,1.0000,'            '
 3.64560E-4, 3.17479E-2,   400.00
398.000, 400.000,   0.460,   400.00,     0.00,     0.00, 0,      0, 1.10000, 0.90000, 1.10000, 0.90000,  25, 0, 0.00000, 0.00000,  0.000
231.000, 220.000
     2,     6,     0,'1 ',2,1,1, 1.32400E-3, 0.00000E+0,1,'            ',1,   1,1.0000,   0,1.0000,   0,1.0000,   0,1.0000,'            '
 3.66940E-4, 2.90227E-2,   400.00
400.000, 400.000,   0.000,   400.00,     0.00,     0.00, 0,      0, 1.10000, 0.90000, 1.10000, 0.90000,   3, 0, 0.00000, 0.00000,  0.000
231.000, 220.000
     2,     6,     0,'2 ',2,1,1, 1.28800E-3, 0.00000E+0,1,'            ',0,   1,1.0000,   0,1.0000,   0,1.0000,   0,1.0000,'            '
 3.88250E-4, 2.97475E-2,   400.00
400.000, 400.000,   0.000,   400.00,     0.00,     0.00, 0,      0, 1.10000, 0.90000, 1.10000, 0.90000,   3, 0, 0.00000, 0.00000,  0.000
231.000, 220.000
     4,    24,     0,'1 ',2,1,1, 1.04600E-3, 0.00000E+0,1,'            ',1,   1,1.0000,   0,1.0000,   0,1.0000,   0,1.0000,'            '
 5.70110E-4, 4.04627E-2,   300.00
409.200, 400.000,   0.000,   300.00,     0.00,     0.00, 0,      0, 1.10000, 0.90000, 1.10000, 0.90000,  25, 0, 0.00000, 0.00000,  0.000
115.000, 110.000
     6,    17,     0,'1 ',2,1,1, 3.97000E-4, 0.00000E+0,1,'            ',1,   1,1.0000,   0,1.0000,   0,1.0000,   0,1.0000,'            '
 1.82489E-3, 7.41109E-2,   150.00
244.640, 220.000,   0.000,   150.00,     0.00,     0.00, 0,      0, 1.10000, 0.90000, 1.10000, 0.90000,  25, 0, 0.00000, 0.00000,  0.000
115.000, 110.000
     6,    17,     0,'2 ',2,1,1, 3.36000E-4, 0.00000E+0,1,'            ',1,   1,1.0000,   0,1.0000,   0,1.0000,   0,1.0000,'            '
 1.73556E-3, 7.06453E-2,   150.00
244.640, 220.000,   0.000,   150.00,     0.00,     0.00, 0,      0, 1.10000, 0.90000, 1.10000, 0.90000,  25, 0, 0.00000, 0.00000,  0.000
115.000, 110.000
     8,    26,     0,'1 ',2,1,1, 6.07000E-4, 0.00000E+0,1,'            ',1,   1,1.0000,   0,1.0000,   0,1.0000,   0,1.0000,'            '
 6.83750E-4, 6.51964E-2,   200.00
230.120, 220.000,   7.580,   200.00,     0.00,     0.00, 0,      0, 1.10000, 0.90000, 1.10000, 0.90000,  25, 0, 0.00000, 0.00000,  0.000
114.994, 110.000
0 / END OF TRANSFORMER DATA, BEGIN AREA DATA
   8,     0,     0.000,    10.000,'HRVATSKA    '
0 / END OF AREA DATA, BEGIN TWO-TERMINAL DC DATA
0 / END OF TWO-TERMINAL DC DATA, BEGIN VSC DC LINE DATA
0 / END OF VSC DC LINE DATA, BEGIN IMPEDANCE CORRECTION DATA
0 / END OF IMPEDANCE CORRECTION DATA, BEGIN MULTI-TERMINAL DC DATA
0 / END OF MULTI-TERMINAL DC DATA, BEGIN MULTI-SECTION LINE DATA
0 / END OF MULTI-SECTION LINE DATA, BEGIN ZONE DATA
   1,'REAL        '
   5,'EKV         '
0 / END OF ZONE DATA, BEGIN INTER-AREA TRANSFER DATA
0 / END OF INTER-AREA TRANSFER DATA, BEGIN OWNER DATA
0 / END OF OWNER DATA, BEGIN FACTS DEVICE DATA
0 / END OF FACTS DEVICE DATA, BEGIN SWITCHED SHUNT DATA
0 / END OF SWITCHED SHUNT DATA, BEGIN GNE DATA
0 / END OF GNE DATA, BEGIN INDUCTION MACHINE DATA
0 / END OF INDUCTION MACHINE DATA
Q
